new file created here..
wedfefdwerghdrt ntdgstg
new line.....
